<edges>
        <edge id="e0" from="n0" to="j1" numLanes="1" speed="13.89"/>
        <edge id="e1" from="j1" to="j2" numLanes="1" speed="13.89"/>
        <edge id="e2" from="j2" to="j3" numLanes="1" speed="13.89"/>
        <edge id="e3" from="j3" to="n4" numLanes="1" speed="13.89"/>
    </edges>
