<configuration>
    <input>
        <net-file value="simple_arterial.net.xml"/>
        <route-files value="simple_arterial_glosa.rou.xml"/>
        <additional-files value="simple_arterial.tls.xml"/>
    </input>
    <time>
        <begin value="0"/>
        <end value="900"/>
        <step-length value="0.5"/>
    </time>
</configuration>
