<nodes>
    <node id="n0" x="0.0" y="0.0" type="priority"/>
    <node id="j1" x="300.0" y="0.0" type="traffic_light"/>
    <node id="n2" x="350.0" y="0.0" type="priority"/>
</nodes>
