<edges>
    <edge id="e0" from="n0" to="j1" numLanes="1" speed="13.89"/>
    <edge id="e1" from="j1" to="n2" numLanes="1" speed="13.89"/>
</edges>
