<?xml version="1.0" encoding="UTF-8"?>

<!-- generated on 2026-05-13 15:53:40 by Eclipse SUMO netconvert Version 1.24.0
<netconvertConfiguration xmlns:xsi="http://www.w3.org/2001/XMLSchema-instance" xsi:noNamespaceSchemaLocation="http://sumo.dlr.de/xsd/netconvertConfiguration.xsd">

    <input>
        <node-files value="scenarios/simple_arterial/simple_arterial.nod.xml"/>
        <edge-files value="scenarios/simple_arterial/simple_arterial.edg.xml"/>
    </input>

    <output>
        <output-file value="scenarios/simple_arterial/simple_arterial.net.xml"/>
    </output>

    <junctions>
        <no-turnarounds value="true"/>
    </junctions>

</netconvertConfiguration>
-->

<net version="1.20" junctionCornerDetail="5" limitTurnSpeed="5.50" xmlns:xsi="http://www.w3.org/2001/XMLSchema-instance" xsi:noNamespaceSchemaLocation="http://sumo.dlr.de/xsd/net_file.xsd">

    <location netOffset="0.00,0.00" convBoundary="0.00,0.00,1200.00,0.00" origBoundary="0.00,0.00,1200.00,0.00" projParameter="!"/>

    <edge id=":j1_0" function="internal">
        <lane id=":j1_0_0" index="0" speed="13.89" length="0.10" shape="300.00,-1.60 300.00,-1.60"/>
    </edge>
    <edge id=":j2_0" function="internal">
        <lane id=":j2_0_0" index="0" speed="13.89" length="0.10" shape="600.00,-1.60 600.00,-1.60"/>
    </edge>
    <edge id=":j3_0" function="internal">
        <lane id=":j3_0_0" index="0" speed="13.89" length="0.10" shape="900.00,-1.60 900.00,-1.60"/>
    </edge>

    <edge id="e0" from="n0" to="j1" priority="-1">
        <lane id="e0_0" index="0" speed="13.89" length="300.00" shape="0.00,-1.60 300.00,-1.60"/>
    </edge>
    <edge id="e1" from="j1" to="j2" priority="-1">
        <lane id="e1_0" index="0" speed="13.89" length="300.00" shape="300.00,-1.60 600.00,-1.60"/>
    </edge>
    <edge id="e2" from="j2" to="j3" priority="-1">
        <lane id="e2_0" index="0" speed="13.89" length="300.00" shape="600.00,-1.60 900.00,-1.60"/>
    </edge>
    <edge id="e3" from="j3" to="n4" priority="-1">
        <lane id="e3_0" index="0" speed="13.89" length="300.00" shape="900.00,-1.60 1200.00,-1.60"/>
    </edge>

    <tlLogic id="j1" type="static" programID="0" offset="0">
        <phase duration="82" state="G"/>
        <phase duration="3"  state="y"/>
        <phase duration="5"  state="r"/>
    </tlLogic>
    <tlLogic id="j2" type="static" programID="0" offset="0">
        <phase duration="82" state="G"/>
        <phase duration="3"  state="y"/>
        <phase duration="5"  state="r"/>
    </tlLogic>
    <tlLogic id="j3" type="static" programID="0" offset="0">
        <phase duration="82" state="G"/>
        <phase duration="3"  state="y"/>
        <phase duration="5"  state="r"/>
    </tlLogic>

    <junction id="j1" type="traffic_light" x="300.00" y="0.00" incLanes="e0_0" intLanes=":j1_0_0" shape="300.00,0.00 300.00,-3.20 300.00,0.00">
        <request index="0" response="0" foes="0" cont="0"/>
    </junction>
    <junction id="j2" type="traffic_light" x="600.00" y="0.00" incLanes="e1_0" intLanes=":j2_0_0" shape="600.00,0.00 600.00,-3.20 600.00,0.00">
        <request index="0" response="0" foes="0" cont="0"/>
    </junction>
    <junction id="j3" type="traffic_light" x="900.00" y="0.00" incLanes="e2_0" intLanes=":j3_0_0" shape="900.00,0.00 900.00,-3.20 900.00,0.00">
        <request index="0" response="0" foes="0" cont="0"/>
    </junction>
    <junction id="n0" type="dead_end" x="0.00" y="0.00" incLanes="" intLanes="" shape="0.00,0.00 0.00,-3.20"/>
    <junction id="n4" type="dead_end" x="1200.00" y="0.00" incLanes="e3_0" intLanes="" shape="1200.00,-3.20 1200.00,0.00"/>

    <connection from="e0" to="e1" fromLane="0" toLane="0" via=":j1_0_0" tl="j1" linkIndex="0" dir="s" state="O"/>
    <connection from="e1" to="e2" fromLane="0" toLane="0" via=":j2_0_0" tl="j2" linkIndex="0" dir="s" state="O"/>
    <connection from="e2" to="e3" fromLane="0" toLane="0" via=":j3_0_0" tl="j3" linkIndex="0" dir="s" state="O"/>

    <connection from=":j1_0" to="e1" fromLane="0" toLane="0" dir="s" state="M"/>
    <connection from=":j2_0" to="e2" fromLane="0" toLane="0" dir="s" state="M"/>
    <connection from=":j3_0" to="e3" fromLane="0" toLane="0" dir="s" state="M"/>

</net>
